9

C            0.52293136403482       -0.42010635279726        1.00188846168398
C           -0.61969519537399        0.03951787458884        1.77624845011559
CL           0.85563753336202       -2.03888613794440        1.70024066352226
O           -0.64137293981869        1.42691989324199        1.92963094095575
H           -0.86635310729423        1.84680142510120        1.13515978429459
H           -1.56532164183005       -0.30331788957785        1.34140221007377
H           -0.51595214105210       -0.42215623714269        2.80284985797286
H            0.21390077891906       -0.74667132004825       -0.05418579373271
H            1.45913032797482        0.20709759202731        1.05532615230186
